lv-network-models/network_17/Feeder_4/LineCode.txt
New LineCode.25_PSC nphases=3 R1=0.727 X1=0.092 R0=0.76 X0=0.092 C1=0 C0=0 Units=km
New LineCode.2c_.007 nphases=3 R1=3.97 X1=0.099 R0=3.97 X0=0.099 C1=0 C0=0 Units=km
New LineCode.2c_.04 nphases=3 R1=0.708 X1=0.079 R0=0.708 X0=0.079 C1=0 C0=0 Units=km
New LineCode.3c_.04 nphases=3 R1=0.708 X1=0.079 R0=2.32 X0=0.093 C1=0 C0=0 Units=km
New LineCode.3c_300_SAC_XC nphases=3 R1=0.102 X1=0.073 R0=0.594 X0=0.105 C1=0 C0=0 Units=km
New LineCode.4_PC nphases=3 R1=4.61 X1=0.094 R0=4.8 X0=0.094 C1=0 C0=0 Units=km
New LineCode.4_PSC nphases=3 R1=4.61 X1=0.093 R0=4.8 X0=0.093 C1=0 C0=0 Units=km
New LineCode.4_XC nphases=3 R1=4.61 X1=0.091 R0=4.8 X0=0.091 C1=0 C0=0 Units=km
New LineCode.4_XC nphases=3 R1=4.61 X1=0.091 R0=4.8 X0=0.091 C1=0 C0=0 Units=km
New LineCode.4_XSC nphases=3 R1=4.61 X1=0.091 R0=4.8 X0=0.091 C1=0 C0=0 Units=km
New LineCode.4_XSC nphases=3 R1=4.61 X1=0.091 R0=4.8 X0=0.091 C1=0 C0=0 Units=km
New LineCode.4_XSC nphases=3 R1=4.61 X1=0.091 R0=4.8 X0=0.091 C1=0 C0=0 Units=km
New LineCode.4c_.04 nphases=3 R1=0.708 X1=0.079 R0=2.32 X0=0.093 C1=0 C0=0 Units=km
New LineCode.4c_.06 nphases=3 R1=0.469 X1=0.075 R0=1.581 X0=0.091 C1=0 C0=0 Units=km
New LineCode.4c_.12 nphases=3 R1=0.242 X1=0.072 R0=0.851 X0=0.079 C1=0 C0=0 Units=km
New LineCode.4c_.25 nphases=3 R1=0.124 X1=0.069 R0=0.441 X0=0.077 C1=0 C0=0 Units=km
New LineCode.4c_.3 nphases=3 R1=0.106 X1=0.068 R0=0.379 X0=0.076 C1=0 C0=0 Units=km
New LineCode.4c_.3_SAC nphases=3 R1=0.15 X1=0.068 R0=0.521 X0=0.083 C1=0 C0=0 Units=km
New LineCode.4c_16 nphases=3 R1=1.149 X1=0.08 R0=4.26 X0=0.092 C1=0 C0=0 Units=km
